
     RDKit          3D

 21 21  0  0  0  0  0  0  0  0999 V2000
    3.4595   -0.0387    0.1531 C   0  0  0  0  0  0  0  0  0  0  0  0
   -2.9770   -0.9052    0.0817 C   0  0  0  0  0  0  0  0  0  0  0  0
   -2.1487   -1.8954    0.6106 C   0  0  0  0  0  0  0  0  0  0  0  0
   -2.4849    0.3390   -0.2521 C   0  0  0  0  0  0  0  0  0  0  0  0
   -0.8171   -1.5739    0.7843 C   0  0  0  0  0  0  0  0  0  0  0  0
    2.0533   -0.3269   -0.2222 C   0  0  0  0  0  0  0  0  0  0  0  0
   -1.1512    0.6427   -0.0716 C   0  0  0  0  0  0  0  0  0  0  0  0
   -0.3104   -0.3211    0.4506 C   0  0  0  0  0  0  0  0  0  0  0  0
   -0.6454    1.9557   -0.4268 C   0  0  0  0  0  0  0  0  0  0  0  0
    1.8497   -0.7812   -1.3730 O   0  0  0  0  0  0  0  0  0  0  0  0
   -1.3779    2.8570   -0.9036 O   0  0  0  0  0  0  0  0  0  0  0  0
    0.6956    2.2608   -0.2453 O   0  0  0  0  0  0  0  0  0  0  0  0
    1.0208   -0.1028    0.6607 O   0  0  0  0  0  0  0  0  0  0  0  0
    3.7647    1.0078   -0.0509 H   0  0  0  0  0  0  0  0  0  0  0  0
    4.1553   -0.6937   -0.4070 H   0  0  0  0  0  0  0  0  0  0  0  0
    3.6597   -0.2473    1.2289 H   0  0  0  0  0  0  0  0  0  0  0  0
   -4.0243   -1.1505   -0.0576 H   0  0  0  0  0  0  0  0  0  0  0  0
   -2.5095   -2.8750    0.8792 H   0  0  0  0  0  0  0  0  0  0  0  0
   -3.1538    1.0701   -0.6550 H   0  0  0  0  0  0  0  0  0  0  0  0
   -0.1682   -2.3398    1.1952 H   0  0  0  0  0  0  0  0  0  0  0  0
    1.1101    3.1182   -0.6251 H   0  0  0  0  0  0  0  0  0  0  0  0
  1  6  1  0
  2  3  2  0
  2  4  1  0
  3  5  1  0
  4  7  2  0
  5  8  2  0
  6 10  2  0
  6 13  1  0
  7  8  1  0
  7  9  1  0
  8 13  1  0
  9 11  2  0
  9 12  1  0
  1 14  1  0
  1 15  1  0
  1 16  1  0
  2 17  1  0
  3 18  1  0
  4 19  1  0
  5 20  1  0
 12 21  1  0
M  END
